/*--------------------------------*- C++ -*----------------------------------*\
| =========                 |                                                 |
| \\      /  F ield         | OpenFOAM: The Open Source CFD Toolbox           |
|  \\    /   O peration     | Version:  v2012                                 |
|   \\  /    A nd           | Website:  www.openfoam.com                      |
|    \\/     M anipulation  |                                                 |
\*---------------------------------------------------------------------------*/
FoamFile
{
    version     2.0;
    format      ascii;
    class       dictionary;
    object      blockMeshDict;
}
// * * * * * * * * * * * * * * * * * * * * * * * * * * * * * * * * * * * * * //


scale 1;

vertices
(
	(0 0 -0.5) //0
	(2 0 -0.5) //1
	(3 0 -0.5) //2
	(21 0 -0.5) //3
	(21 2 -0.5) //4
	(21 3 -0.5) //5
	(21 5 -0.5) //6
	(3 5 -0.5) //7
	(2 5 -0.5) //8
	(0 5 -0.5) //9
	(0 3 -0.5) //10
	(0 2 -0.5) //11
	(2 2 -0.5) //12
	(3 2 -0.5) //13
	(3 3 -0.5) //14
	(2 3 -0.5) //15
	(0 0 0.5) //16
	(2 0 0.5) //17
	(3 0 0.5) //18
	(21 0 0.5) //19
	(21 2 0.5) //20
	(21 3 0.5) //21
	(21 5 0.5) //22
	(3 5 0.5) //23
	(2 5 0.5) //24
	(0 5 0.5) //25
	(0 3 0.5) //26
	(0 2 0.5) //27
	(2 2 0.5) //28
	(3 2 0.5) //29
	(3 3 0.5) //30
	(2 3 0.5) //31

	(8 0 -0.5) //32
	(9 0 -0.5) //33
	(8 2 -0.5) //34
	(9 2 -0.5) //35
	(8 3 -0.5) //36
	(9 3 -0.5) //37
	(8 5 -0.5) //38
	(9 5 -0.5) //39
	(8 0 0.5) //40
	(9 0 0.5) //41
	(8 2 0.5) //42
	(9 2 0.5) //43
	(8 3 0.5) //44
	(9 3 0.5) //45
	(8 5 0.5) //46
	(9 5 0.5) //47
);

blocks
(
	hex (0 1 12 11 16 17 28 27) (16 16 1) simpleGrading (1 1 1) //(2,2)
	hex (11 12 15 10 27 28 31 26) (16 8 1) simpleGrading (1 1 1) //(2,1)
	hex (10 15 8 9 26 31 24 25) (16 16 1) simpleGrading (1 1 1) //(2,2)

	hex (1 2 13 12 17 18 29 28) (8 16 1) simpleGrading (1 1 1) //(1,2)
	hex (15 14 7 8 31 30 23 24) (8 16 1) simpleGrading (1 1 1) //(1,2)

	hex (2 32 34 13 18 40 42 29) (40 16 1) simpleGrading (1 1 1) //(12,2)
	hex (13 34 36 14 29 42 44 30) (40 8 1) simpleGrading (1 1 1) //(12,1)	
	hex (14 36 38 7 30 44 46 23) (40 16 1) simpleGrading (1 1 1) //(12,2)

	hex (32 33 35 34 40 41 43 42) (8 16 1) simpleGrading (1 1 1) //(12,1)	
	hex (36 37 39 38 44 45 47 46) (8 16 1) simpleGrading (1 1 1) //(12,2)

	hex (33 3 4 35 41 19 20 43) (96 16 1) simpleGrading (1 1 1) //(12,2)
	hex (35 4 5 37 43 20 21 45) (96 8 1) simpleGrading (1 1 1) //(12,1)	
	hex (37 5 6 39 45 21 22 47) (96 16 1) simpleGrading (1 1 1) //(12,2)
);

edges
(
);

boundary
(
	outlet
	{
		type patch;
		faces
			(
			(3 4 20 19)
			(4 5 21 20)
			(5 6 22 21)
			);
	}

	inlet
	{
		type patch;
		faces
			(
			(11 0 16 27)
			(10 11 27 26)
			(9 10 26 25)
			);
	}

	upperwall
	{
		type wall;
		faces
			(
			(6 39 47 22)
			(39 38 46 47)
			(38 7 23 46)
			(7 8 24 23)
			(8 9 25 24)
			);
	}

	lowerwall
	{
		type wall;
		faces
			(
			(0 1 17 16)
			(1 2 18 17)
			(2 32 40 18)
			(32 33 41 40)
			(33 3 19 41)
			);
	}

	column1
	{
		type wall;
		faces
			(
			(15 12 28 31)
			(14 15 31 30)
			(12 13 29 28)
			(13 14 30 29)
			);
	}

	column2
	{
		type wall;
		faces
			(
			(36 34 42 44)
			(37 36 44 45)
			(34 35 43 42)
			(35 37 45 43)
			);
	}
);

mergePatchPairs
(
);