/*--------------------------------*- C++ -*----------------------------------*\
| =========                 |                                                 |
| \\      /  F ield         | OpenFOAM: The Open Source CFD Toolbox           |
|  \\    /   O peration     | Version:  plus                                  |
|   \\  /    A nd           | Website:  www.openfoam.com                      |
|    \\/     M anipulation  |                                                 |
\*---------------------------------------------------------------------------*/
FoamFile
{
    version     2.0;
    format      ascii;
    class       polyBoundaryMesh;
    location    "constant/solid/polyMesh";
    object      boundary;
}
// * * * * * * * * * * * * * * * * * * * * * * * * * * * * * * * * * * * * * //

4
(
    solid_heated_wall_top
    {
        type            patch;
        nFaces          160;
        startFace       14000;
    }
    solid_heated_wall_bottom
    {
        type            patch;
        nFaces          120;
        startFace       14160;
    }
    front_and_back
    {
        type            empty;
        inGroups        1(empty);
        nFaces          14560;
        startFace       14280;
    }
    solid_to_fluid
    {
        type            mappedWall;
        inGroups        2(wall mappedPatch);
        nFaces          360;
        startFace       28840;
        sampleMode      nearestPatchFace;
        sampleRegion    fluid;
        samplePatch     fluid_to_solid;
    }
)

// ************************************************************************* //
