/*--------------------------------*- C++ -*----------------------------------*\
| =========                 |                                                 |
| \\      /  F ield         | OpenFOAM: The Open Source CFD Toolbox           |
|  \\    /   O peration     | Version:  plus                                  |
|   \\  /    A nd           | Website:  www.openfoam.com                      |
|    \\/     M anipulation  |                                                 |
\*---------------------------------------------------------------------------*/
FoamFile
{
    version     2.0;
    format      ascii;
    class       polyBoundaryMesh;
    location    "constant/fluid/polyMesh";
    object      boundary;
}
// * * * * * * * * * * * * * * * * * * * * * * * * * * * * * * * * * * * * * //

4
(
    inlet
    {
        type            patch;
        nFaces          480;
        startFace       102256;
    }
    outlet
    {
        type            patch;
        nFaces          480;
        startFace       102736;
    }
    walls
    {
        type            wall;
        inGroups        1(wall);
        nFaces          8104;
        startFace       103216;
    }
    fluid_to_solid
    {
        type            mappedWall;
        inGroups        1(wall);
        nFaces          1464;
        startFace       111320;
        sampleMode      nearestPatchFace;
        sampleRegion    solid;
        samplePatch     solid_to_fluid;
    }
)

// ************************************************************************* //
