/*--------------------------------*- C++ -*----------------------------------*\
| =========                 |                                                 |
| \\      /  F ield         | OpenFOAM: The Open Source CFD Toolbox           |
|  \\    /   O peration     | Version:  2112                                  |
|   \\  /    A nd           | Website:  www.openfoam.com                      |
|    \\/     M anipulation  |                                                 |
\*---------------------------------------------------------------------------*/
FoamFile
{
    version     2.0;
    format      ascii;
    arch        "LSB;label=64;scalar=64";
    class       polyBoundaryMesh;
    location    "constant/polyMesh";
    object      boundary;
}
// * * * * * * * * * * * * * * * * * * * * * * * * * * * * * * * * * * * * * //

7
(
    outlet
    {
        type            patch;
        nFaces          40;
        startFace       12944;
    }
    inlet
    {
        type            patch;
        nFaces          40;
        startFace       12984;
    }
    upperwall
    {
        type            wall;
        inGroups        1(wall);
        nFaces          168;
        startFace       13024;
    }
    lowerwall
    {
        type            wall;
        inGroups        1(wall);
        nFaces          168;
        startFace       13192;
    }
    column1
    {
        type            wall;
        inGroups        1(wall);
        nFaces          32;
        startFace       13360;
    }
    column2
    {
        type            wall;
        inGroups        1(wall);
        nFaces          32;
        startFace       13392;
    }
    defaultFaces
    {
        type            empty;
        inGroups        1(empty);
        nFaces          13184;
        startFace       13424;
    }
)

// ************************************************************************* //
