/*--------------------------------*- C++ -*----------------------------------*\
| =========                 |                                                 |
| \\      /  F ield         | OpenFOAM: The Open Source CFD Toolbox           |
|  \\    /   O peration     | Version:  dev                                   |
|   \\  /    A nd           | Web:      www.OpenFOAM.org                      |
|    \\/     M anipulation  |                                                 |
\*---------------------------------------------------------------------------*/
FoamFile
{
    version     2.0;
    format      ascii;
    class       volScalarField;
    location    "0/domain0";
    object      p_rgh;
}
// * * * * * * * * * * * * * * * * * * * * * * * * * * * * * * * * * * * * * //

dimensions      [1 -1 -2 0 0 0 0];

internalField   uniform 0;

boundaryField
{
    inlet
    {
        type            fixedFluxPressure;
        value           uniform 0;
    }
    outlet
    {
        type            fixedMean;
        value           uniform 0;
        meanValue       constant 0;
    }
    /*outlet
    {
        type            fixedValue;
        value           uniform 0;
    }*/
    "(fluid_to_solid|walls|bottom)"
    {
        type            zeroGradient;
        value           uniform 0;
    }
}


// ************************************************************************* //
