/*--------------------------------*- C++ -*----------------------------------*\
| =========                 |                                                 |
| \\      /  F ield         | OpenFOAM: The Open Source CFD Toolbox           |
|  \\    /   O peration     | Version:  2112                                  |
|   \\  /    A nd           | Website:  www.openfoam.com                      |
|    \\/     M anipulation  |                                                 |
\*---------------------------------------------------------------------------*/
FoamFile
{
    version     2.0;
    format      ascii;
    arch        "LSB;label=64;scalar=64";
    class       polyBoundaryMesh;
    location    "constant/polyMesh";
    object      boundary;
}
// * * * * * * * * * * * * * * * * * * * * * * * * * * * * * * * * * * * * * //

6
(
    outlet
    {
        type            patch;
        nFaces          80;
        startFace       37536;
    }
    inlet
    {
        type            patch;
        nFaces          80;
        startFace       37616;
    }
    upperwall
    {
        type            wall;
        inGroups        1(wall);
        nFaces          240;
        startFace       37696;
    }
    lowerwall
    {
        type            wall;
        inGroups        1(wall);
        nFaces          240;
        startFace       37936;
    }
    column
    {
        type            wall;
        inGroups        1(wall);
        nFaces          64;
        startFace       38176;
    }
    defaultFaces
    {
        type            empty;
        inGroups        1(empty);
        nFaces          37888;
        startFace       38240;
    }
)

// ************************************************************************* //
